
     RDKit          3D

176182  0  0  0  0  0  0  0  0999 V2000
    3.4914   -5.0598   -1.2000 C   0  0  0  0  0  0  0  0  0  0  0  0
    3.1069   -3.7260   -1.2846 C   0  0  0  0  0  0  0  0  0  0  0  0
    3.8108   -2.9278   -2.1032 F   0  0  0  0  0  0  0  0  0  0  0  0
    2.0344   -3.2232   -0.5389 C   0  0  0  0  0  0  0  0  0  0  0  0
    1.6167   -1.8051   -0.7080 C   0  0  0  0  0  0  0  0  0  0  0  0
    0.4400   -1.4824   -0.6025 O   0  0  0  0  0  0  0  0  0  0  0  0
    2.6072   -0.8905   -1.0110 N   0  0  0  0  0  0  0  0  0  0  0  0
    2.2756    0.5171   -1.2867 C   0  0  2  0  0  0  0  0  0  0  0  0
    3.1236    0.9035   -2.5212 C   0  0  0  0  0  0  0  0  0  0  0  0
    2.9227    0.3556   -3.6078 O   0  0  0  0  0  0  0  0  0  0  0  0
    4.2031    1.7408   -2.3317 N   0  0  0  0  0  0  0  0  0  0  0  0
    5.0827    2.1445   -3.4312 C   0  0  2  0  0  0  0  0  0  0  0  0
    6.0109    1.0646   -4.0476 C   0  0  0  0  0  0  0  0  0  0  0  0
    5.6090    0.7518   -5.4988 C   0  0  0  0  0  0  0  0  0  0  0  0
    6.1080   -0.2504   -3.2629 C   0  0  0  0  0  0  0  0  0  0  0  0
    5.7158    3.5060   -3.0114 C   0  0  0  0  0  0  0  0  0  0  0  0
    4.9930    4.5094   -3.1343 O   0  0  0  0  0  0  0  0  0  0  0  0
    6.9359    3.6412   -2.3871 N   0  0  0  0  0  0  0  0  0  0  0  0
    7.5913    4.9415   -2.4669 C   0  0  0  0  0  0  0  0  0  0  0  0
    9.0076    4.6098   -2.9472 C   0  0  0  0  0  0  0  0  0  0  0  0
    9.1026    3.0759   -2.8940 C   0  0  0  0  0  0  0  0  0  0  0  0
    7.9445    2.6630   -1.9672 C   0  0  1  0  0  0  0  0  0  0  0  0
    8.4564    2.7895   -0.4901 C   0  0  0  0  0  0  0  0  0  0  0  0
    9.4129    3.5262   -0.2218 O   0  0  0  0  0  0  0  0  0  0  0  0
    7.8666    2.0287    0.5130 N   0  0  0  0  0  0  0  0  0  0  0  0
    8.5569    1.9830    1.7982 C   0  0  0  0  0  0  0  0  0  0  0  0
    6.4896    1.5258    0.4995 C   0  0  0  0  0  0  0  0  0  0  0  0
    5.6136    2.3116    1.4993 C   0  0  0  0  0  0  0  0  0  0  0  0
    5.6699    3.5438    1.5225 O   0  0  0  0  0  0  0  0  0  0  0  0
    4.7902    1.6124    2.3785 N   0  0  0  0  0  0  0  0  0  0  0  0
    4.2812    2.3614    3.5294 C   0  0  0  0  0  0  0  0  0  0  0  0
    4.1751    0.2828    2.1028 C   0  0  1  0  0  0  0  0  0  0  0  0
    4.6823   -0.8283    3.0794 C   0  0  0  0  0  0  0  0  0  0  0  0
    4.1690   -2.2130    2.6553 C   0  0  0  0  0  0  0  0  0  0  0  0
    6.2083   -0.8884    3.1989 C   0  0  0  0  0  0  0  0  0  0  0  0
    2.6246    0.3856    2.2176 C   0  0  0  0  0  0  0  0  0  0  0  0
    2.0454    0.1736    3.2830 O   0  0  0  0  0  0  0  0  0  0  0  0
    1.9109    0.7790    1.1361 O   0  0  0  0  0  0  0  0  0  0  0  0
    2.4601    1.4087   -0.0440 C   0  0  2  0  0  0  0  0  0  0  0  0
    1.7318    2.7409   -0.2005 C   0  0  0  0  0  0  0  0  0  0  0  0
    1.3448   -4.0763    0.3465 C   0  0  0  0  0  0  0  0  0  0  0  0
    0.2778   -3.6007    1.1370 N   0  0  0  0  0  0  0  0  0  0  0  0
   -0.2638   -4.3932    2.0124 C   0  0  0  0  0  0  0  0  0  0  0  0
   -1.4227   -3.9429    2.8432 C   0  0  0  0  0  0  0  0  0  0  0  0
   -2.2616   -2.7405    2.4872 C   0  0  0  0  0  0  0  0  0  0  0  0
   -3.1575   -2.3165    3.2250 O   0  0  0  0  0  0  0  0  0  0  0  0
   -2.0751   -2.2057    1.2361 N   0  0  0  0  0  0  0  0  0  0  0  0
   -3.1706   -1.5048    0.5577 C   0  0  2  0  0  0  0  0  0  0  0  0
   -4.0978   -2.6333    0.0665 C   0  0  0  0  0  0  0  0  0  0  0  0
   -3.6405   -3.6710   -0.4340 O   0  0  0  0  0  0  0  0  0  0  0  0
   -5.4479   -2.5364    0.1467 N   0  0  0  0  0  0  0  0  0  0  0  0
   -6.3639   -1.4205    0.4034 C   0  0  2  0  0  0  0  0  0  0  0  0
   -6.9023   -1.3254    1.8506 C   0  0  0  0  0  0  0  0  0  0  0  0
   -6.8885   -2.6518    2.6159 C   0  0  0  0  0  0  0  0  0  0  0  0
   -6.1898   -0.2406    2.6573 C   0  0  0  0  0  0  0  0  0  0  0  0
   -7.5553   -1.7103   -0.5544 C   0  0  0  0  0  0  0  0  0  0  0  0
   -7.8752   -2.8834   -0.7874 O   0  0  0  0  0  0  0  0  0  0  0  0
   -8.2442   -0.6698   -1.1325 N   0  0  0  0  0  0  0  0  0  0  0  0
   -9.3509   -0.9557   -2.0306 C   0  0  0  0  0  0  0  0  0  0  0  0
   -9.8717    0.4008   -2.4778 C   0  0  0  0  0  0  0  0  0  0  0  0
   -8.6680    1.3212   -2.2940 C   0  0  0  0  0  0  0  0  0  0  0  0
   -8.0003    0.7724   -1.0294 C   0  0  1  0  0  0  0  0  0  0  0  0
   -8.6499    1.4108    0.2223 C   0  0  0  0  0  0  0  0  0  0  0  0
   -9.4894    0.7836    0.8742 O   0  0  0  0  0  0  0  0  0  0  0  0
   -8.3092    2.7161    0.5595 N   0  0  0  0  0  0  0  0  0  0  0  0
   -9.0080    3.3010    1.7011 C   0  0  0  0  0  0  0  0  0  0  0  0
   -7.2115    3.5138   -0.0182 C   0  0  0  0  0  0  0  0  0  0  0  0
   -6.0441    3.7429    0.9733 C   0  0  0  0  0  0  0  0  0  0  0  0
   -6.2919    4.2466    2.0749 O   0  0  0  0  0  0  0  0  0  0  0  0
   -4.7401    3.3967    0.6254 N   0  0  0  0  0  0  0  0  0  0  0  0
   -3.6961    3.6343    1.6237 C   0  0  0  0  0  0  0  0  0  0  0  0
   -4.3343    2.7605   -0.6530 C   0  0  1  0  0  0  0  0  0  0  0  0
   -4.1310    3.7921   -1.7971 C   0  0  0  0  0  0  0  0  0  0  0  0
   -2.9755    4.7703   -1.5809 C   0  0  0  0  0  0  0  0  0  0  0  0
   -3.9743    3.0941   -3.1528 C   0  0  0  0  0  0  0  0  0  0  0  0
   -3.1586    1.7666   -0.5279 C   0  0  0  0  0  0  0  0  0  0  0  0
   -2.0135    2.0729   -0.2308 O   0  0  0  0  0  0  0  0  0  0  0  0
   -3.6148    0.4982   -0.7513 O   0  0  0  0  0  0  0  0  0  0  0  0
   -2.6682   -0.5888   -0.5789 C   0  0  2  0  0  0  0  0  0  0  0  0
   -2.5146   -1.2533   -1.9403 C   0  0  0  0  0  0  0  0  0  0  0  0
   -1.8199   -4.6781    3.9040 C   0  0  0  0  0  0  0  0  0  0  0  0
   -2.8552   -4.3915    4.7693 N   0  0  0  0  0  0  0  0  0  0  0  0
   -1.1378   -5.9838    4.2088 C   0  0  0  0  0  0  0  0  0  0  0  0
   -1.4264   -6.6131    5.2290 O   0  0  0  0  0  0  0  0  0  0  0  0
   -0.1740   -6.5333    3.2375 C   0  0  0  0  0  0  0  0  0  0  0  0
    0.2895   -7.9343    3.5011 C   0  0  0  0  0  0  0  0  0  0  0  0
    0.2354   -5.7804    2.2105 C   0  0  0  0  0  0  0  0  0  0  0  0
    1.1642   -6.2885    1.3157 O   0  0  0  0  0  0  0  0  0  0  0  0
    1.7595   -5.4164    0.4366 C   0  0  0  0  0  0  0  0  0  0  0  0
    2.8101   -5.9273   -0.3454 C   0  0  0  0  0  0  0  0  0  0  0  0
    3.2137   -7.3713   -0.2521 C   0  0  0  0  0  0  0  0  0  0  0  0
    4.3171   -5.4090   -1.8122 H   0  0  0  0  0  0  0  0  0  0  0  0
    3.5233   -1.2315   -1.2780 H   0  0  0  0  0  0  0  0  0  0  0  0
    1.2264    0.5615   -1.6028 H   0  0  0  0  0  0  0  0  0  0  0  0
    4.1868    2.3984   -1.5633 H   0  0  0  0  0  0  0  0  0  0  0  0
    4.3896    2.4407   -4.2315 H   0  0  0  0  0  0  0  0  0  0  0  0
    7.0204    1.4730   -4.1421 H   0  0  0  0  0  0  0  0  0  0  0  0
    5.6366    1.6603   -6.1098 H   0  0  0  0  0  0  0  0  0  0  0  0
    6.3063    0.0353   -5.9471 H   0  0  0  0  0  0  0  0  0  0  0  0
    4.6038    0.3273   -5.5635 H   0  0  0  0  0  0  0  0  0  0  0  0
    6.2817   -0.0850   -2.1969 H   0  0  0  0  0  0  0  0  0  0  0  0
    5.2032   -0.8554   -3.3682 H   0  0  0  0  0  0  0  0  0  0  0  0
    6.9413   -0.8539   -3.6404 H   0  0  0  0  0  0  0  0  0  0  0  0
    7.0896    5.6359   -3.1511 H   0  0  0  0  0  0  0  0  0  0  0  0
    7.6029    5.3835   -1.4653 H   0  0  0  0  0  0  0  0  0  0  0  0
    9.7543    5.0923   -2.3084 H   0  0  0  0  0  0  0  0  0  0  0  0
    9.1786    4.9652   -3.9676 H   0  0  0  0  0  0  0  0  0  0  0  0
    8.9374    2.6799   -3.9008 H   0  0  0  0  0  0  0  0  0  0  0  0
   10.0863    2.7300   -2.5635 H   0  0  0  0  0  0  0  0  0  0  0  0
    7.6464    1.6308   -2.1314 H   0  0  0  0  0  0  0  0  0  0  0  0
    8.4078    1.0003    2.2575 H   0  0  0  0  0  0  0  0  0  0  0  0
    8.1636    2.7679    2.4537 H   0  0  0  0  0  0  0  0  0  0  0  0
    9.6350    2.1382    1.6796 H   0  0  0  0  0  0  0  0  0  0  0  0
    6.5319    0.4629    0.7347 H   0  0  0  0  0  0  0  0  0  0  0  0
    6.0502    1.6480   -0.4864 H   0  0  0  0  0  0  0  0  0  0  0  0
    4.1671    1.6954    4.3907 H   0  0  0  0  0  0  0  0  0  0  0  0
    3.3171    2.8057    3.2667 H   0  0  0  0  0  0  0  0  0  0  0  0
    4.9703    3.1634    3.8045 H   0  0  0  0  0  0  0  0  0  0  0  0
    4.4252   -0.0398    1.0882 H   0  0  0  0  0  0  0  0  0  0  0  0
    4.2968   -0.6300    4.0879 H   0  0  0  0  0  0  0  0  0  0  0  0
    3.0769   -2.2591    2.6677 H   0  0  0  0  0  0  0  0  0  0  0  0
    4.5322   -2.9865    3.3400 H   0  0  0  0  0  0  0  0  0  0  0  0
    4.5088   -2.4702    1.6475 H   0  0  0  0  0  0  0  0  0  0  0  0
    6.5056   -1.6510    3.9290 H   0  0  0  0  0  0  0  0  0  0  0  0
    6.6197    0.0630    3.5505 H   0  0  0  0  0  0  0  0  0  0  0  0
    6.6764   -1.1498    2.2462 H   0  0  0  0  0  0  0  0  0  0  0  0
    3.5087    1.6274    0.1188 H   0  0  0  0  0  0  0  0  0  0  0  0
    1.8993    3.3686    0.6817 H   0  0  0  0  0  0  0  0  0  0  0  0
    2.0632    3.2911   -1.0854 H   0  0  0  0  0  0  0  0  0  0  0  0
    0.6509    2.5887   -0.2708 H   0  0  0  0  0  0  0  0  0  0  0  0
   -1.2691   -2.5039    0.6813 H   0  0  0  0  0  0  0  0  0  0  0  0
   -3.7012   -0.9023    1.2998 H   0  0  0  0  0  0  0  0  0  0  0  0
   -5.9132   -3.3869   -0.1696 H   0  0  0  0  0  0  0  0  0  0  0  0
   -5.8652   -0.4996    0.1008 H   0  0  0  0  0  0  0  0  0  0  0  0
   -7.9527   -1.0166    1.8019 H   0  0  0  0  0  0  0  0  0  0  0  0
   -7.4467   -2.5500    3.5512 H   0  0  0  0  0  0  0  0  0  0  0  0
   -5.8726   -2.9632    2.8695 H   0  0  0  0  0  0  0  0  0  0  0  0
   -7.3739   -3.4482    2.0429 H   0  0  0  0  0  0  0  0  0  0  0  0
   -6.7004   -0.0751    3.6127 H   0  0  0  0  0  0  0  0  0  0  0  0
   -5.1572   -0.5113    2.8841 H   0  0  0  0  0  0  0  0  0  0  0  0
   -6.1845    0.7138    2.1190 H   0  0  0  0  0  0  0  0  0  0  0  0
  -10.1173   -1.5446   -1.5159 H   0  0  0  0  0  0  0  0  0  0  0  0
   -8.9704   -1.5415   -2.8746 H   0  0  0  0  0  0  0  0  0  0  0  0
  -10.2463    0.3890   -3.5063 H   0  0  0  0  0  0  0  0  0  0  0  0
  -10.6934    0.7204   -1.8259 H   0  0  0  0  0  0  0  0  0  0  0  0
   -7.9906    1.2102   -3.1498 H   0  0  0  0  0  0  0  0  0  0  0  0
   -8.9699    2.3710   -2.2276 H   0  0  0  0  0  0  0  0  0  0  0  0
   -6.9281    0.9472   -1.0226 H   0  0  0  0  0  0  0  0  0  0  0  0
   -9.0092    4.3909    1.6294 H   0  0  0  0  0  0  0  0  0  0  0  0
  -10.0459    2.9588    1.7327 H   0  0  0  0  0  0  0  0  0  0  0  0
   -8.5103    2.9780    2.6187 H   0  0  0  0  0  0  0  0  0  0  0  0
   -7.6196    4.5023   -0.2633 H   0  0  0  0  0  0  0  0  0  0  0  0
   -6.8898    3.0891   -0.9627 H   0  0  0  0  0  0  0  0  0  0  0  0
   -4.0367    4.2800    2.4364 H   0  0  0  0  0  0  0  0  0  0  0  0
   -2.8312    4.1158    1.1614 H   0  0  0  0  0  0  0  0  0  0  0  0
   -3.4001    2.6731    2.0584 H   0  0  0  0  0  0  0  0  0  0  0  0
   -5.1794    2.1410   -0.9570 H   0  0  0  0  0  0  0  0  0  0  0  0
   -5.0434    4.4012   -1.8599 H   0  0  0  0  0  0  0  0  0  0  0  0
   -2.8962    5.4607   -2.4280 H   0  0  0  0  0  0  0  0  0  0  0  0
   -3.1341    5.3815   -0.6885 H   0  0  0  0  0  0  0  0  0  0  0  0
   -2.0125    4.2603   -1.4875 H   0  0  0  0  0  0  0  0  0  0  0  0
   -4.8274    2.4381   -3.3507 H   0  0  0  0  0  0  0  0  0  0  0  0
   -3.0600    2.4933   -3.1968 H   0  0  0  0  0  0  0  0  0  0  0  0
   -3.9315    3.8329   -3.9606 H   0  0  0  0  0  0  0  0  0  0  0  0
   -1.6943   -0.1851   -0.2883 H   0  0  0  0  0  0  0  0  0  0  0  0
   -3.4827   -1.5577   -2.3533 H   0  0  0  0  0  0  0  0  0  0  0  0
   -1.8581   -2.1253   -1.8971 H   0  0  0  0  0  0  0  0  0  0  0  0
   -2.0946   -0.5430   -2.6601 H   0  0  0  0  0  0  0  0  0  0  0  0
   -3.3997   -3.5393    4.6261 H   0  0  0  0  0  0  0  0  0  0  0  0
   -3.0900   -5.0648    5.4931 H   0  0  0  0  0  0  0  0  0  0  0  0
    0.9844   -8.2988    2.7385 H   0  0  0  0  0  0  0  0  0  0  0  0
   -0.5654   -8.6195    3.5157 H   0  0  0  0  0  0  0  0  0  0  0  0
    0.8028   -7.9955    4.4672 H   0  0  0  0  0  0  0  0  0  0  0  0
    2.3418   -8.0212   -0.3880 H   0  0  0  0  0  0  0  0  0  0  0  0
    3.9420   -7.6351   -1.0269 H   0  0  0  0  0  0  0  0  0  0  0  0
    3.6672   -7.5728    0.7228 H   0  0  0  0  0  0  0  0  0  0  0  0
  1  2  2  0
  2  3  1  0
  2  4  1  0
  4  5  1  0
  5  6  2  0
  5  7  1  0
  7  8  1  0
  8  9  1  0
  9 10  2  0
  9 11  1  0
 11 12  1  0
 12 13  1  0
 13 14  1  0
 13 15  1  0
 12 16  1  0
 16 17  2  0
 16 18  1  0
 18 19  1  0
 19 20  1  0
 20 21  1  0
 21 22  1  0
 22 23  1  0
 23 24  2  0
 23 25  1  0
 25 26  1  0
 25 27  1  0
 27 28  1  0
 28 29  2  0
 28 30  1  0
 30 31  1  0
 30 32  1  0
 32 33  1  0
 33 34  1  0
 33 35  1  0
 32 36  1  0
 36 37  2  0
 36 38  1  0
 38 39  1  0
 39 40  1  0
  4 41  2  0
 41 42  1  0
 42 43  2  0
 43 44  1  0
 44 45  1  0
 45 46  2  0
 45 47  1  0
 47 48  1  0
 48 49  1  0
 49 50  2  0
 49 51  1  0
 51 52  1  0
 52 53  1  0
 53 54  1  0
 53 55  1  0
 52 56  1  0
 56 57  2  0
 56 58  1  0
 58 59  1  0
 59 60  1  0
 60 61  1  0
 61 62  1  0
 62 63  1  0
 63 64  2  0
 63 65  1  0
 65 66  1  0
 65 67  1  0
 67 68  1  0
 68 69  2  0
 68 70  1  0
 70 71  1  0
 70 72  1  0
 72 73  1  0
 73 74  1  0
 73 75  1  0
 72 76  1  0
 76 77  2  0
 76 78  1  0
 78 79  1  0
 79 80  1  0
 44 81  2  0
 81 82  1  0
 81 83  1  0
 83 84  2  0
 83 85  1  0
 85 86  1  0
 85 87  2  0
 87 88  1  0
 88 89  1  0
 89 90  2  0
 90 91  1  0
 90  1  1  0
 39  8  1  0
 89 41  1  0
 22 18  1  0
 87 43  1  0
 79 48  1  0
 62 58  1  0
  1 92  1  0
  7 93  1  0
  8 94  1  6
 11 95  1  0
 12 96  1  6
 13 97  1  0
 14 98  1  0
 14 99  1  0
 14100  1  0
 15101  1  0
 15102  1  0
 15103  1  0
 19104  1  0
 19105  1  0
 20106  1  0
 20107  1  0
 21108  1  0
 21109  1  0
 22110  1  6
 26111  1  0
 26112  1  0
 26113  1  0
 27114  1  0
 27115  1  0
 31116  1  0
 31117  1  0
 31118  1  0
 32119  1  6
 33120  1  0
 34121  1  0
 34122  1  0
 34123  1  0
 35124  1  0
 35125  1  0
 35126  1  0
 39127  1  1
 40128  1  0
 40129  1  0
 40130  1  0
 47131  1  0
 48132  1  1
 51133  1  0
 52134  1  6
 53135  1  0
 54136  1  0
 54137  1  0
 54138  1  0
 55139  1  0
 55140  1  0
 55141  1  0
 59142  1  0
 59143  1  0
 60144  1  0
 60145  1  0
 61146  1  0
 61147  1  0
 62148  1  6
 66149  1  0
 66150  1  0
 66151  1  0
 67152  1  0
 67153  1  0
 71154  1  0
 71155  1  0
 71156  1  0
 72157  1  6
 73158  1  0
 74159  1  0
 74160  1  0
 74161  1  0
 75162  1  0
 75163  1  0
 75164  1  0
 79165  1  1
 80166  1  0
 80167  1  0
 80168  1  0
 82169  1  0
 82170  1  0
 86171  1  0
 86172  1  0
 86173  1  0
 91174  1  0
 91175  1  0
 91176  1  0
M  END
$$$$
