
     RDKit          3D

 64 68  0  0  0  0  0  0  0  0999 V2000
   -4.2524    1.7727   -0.1214 C   0  0  0  0  0  0  0  0  0  0  0  0
   -5.1311    0.9310   -0.8105 C   0  0  0  0  0  0  0  0  0  0  0  0
   -6.5800    1.2966   -0.9719 C   0  0  0  0  0  0  0  0  0  0  0  0
   -7.3746    0.9044    0.2279 N   0  0  0  0  0  4  0  0  0  0  0  0
   -8.8277    1.2322    0.1368 C   0  0  0  0  0  0  0  0  0  0  0  0
   -9.5028    1.0356    1.4909 C   0  0  0  0  0  0  0  0  0  0  0  0
   -9.4892   -0.4060    1.9751 C   0  0  0  0  0  0  0  0  0  0  0  0
   -4.6303   -0.2734   -1.3258 C   0  0  0  0  0  0  0  0  0  0  0  0
   -3.2715   -0.6197   -1.1684 C   0  0  0  0  0  0  0  0  0  0  0  0
   -2.7454   -1.8067   -1.6856 C   0  0  0  0  0  0  0  0  0  0  0  0
   -1.3905   -2.1138   -1.5128 C   0  0  0  0  0  0  0  0  0  0  0  0
   -0.8575   -3.2988   -2.0278 C   0  0  0  0  0  0  0  0  0  0  0  0
    0.4903   -3.5934   -1.8425 C   0  0  0  0  0  0  0  0  0  0  0  0
    1.3257   -2.7337   -1.1568 C   0  0  0  0  0  0  0  0  0  0  0  0
    2.6114   -3.0917   -1.0059 N   0  0  0  0  0  0  0  0  0  0  0  0
    3.4480   -2.2853   -0.3397 C   0  0  0  0  0  0  0  0  0  0  0  0
    4.7637   -2.6818   -0.1593 C   0  0  0  0  0  0  0  0  0  0  0  0
    5.6871   -1.8874    0.5289 C   0  0  0  0  0  0  0  0  0  0  0  0
    5.3044   -0.6442    1.0451 C   0  0  0  0  0  0  0  0  0  0  0  0
    6.2993    0.2248    1.7635 C   0  0  0  0  0  0  0  0  0  0  0  0
    7.3391    0.7544    0.8318 N   0  0  0  0  0  4  0  0  0  0  0  0
    8.3344    1.6622    1.4745 C   0  0  0  0  0  0  0  0  0  0  0  0
    9.4753    1.9703    0.5093 C   0  0  0  0  0  0  0  0  0  0  0  0
    9.0432    2.7643   -0.7158 C   0  0  0  0  0  0  0  0  0  0  0  0
    3.9738   -0.2334    0.8745 C   0  0  0  0  0  0  0  0  0  0  0  0
    3.0448   -1.0520    0.1957 C   0  0  0  0  0  0  0  0  0  0  0  0
    1.6990   -0.6915    0.0334 C   0  0  0  0  0  0  0  0  0  0  0  0
    0.7950   -1.5328   -0.6457 C   0  0  0  0  0  0  0  0  0  0  0  0
   -0.5712   -1.2070   -0.8122 C   0  0  0  0  0  0  0  0  0  0  0  0
   -1.0895   -0.0569   -0.3125 N   0  0  0  0  0  0  0  0  0  0  0  0
   -2.3919    0.2325   -0.4824 C   0  0  0  0  0  0  0  0  0  0  0  0
   -2.9050    1.4166    0.0304 C   0  0  0  0  0  0  0  0  0  0  0  0
   -4.5848    2.7239    0.2943 H   0  0  0  0  0  0  0  0  0  0  0  0
   -6.6938    2.3792   -1.1102 H   0  0  0  0  0  0  0  0  0  0  0  0
   -7.0200    0.7906   -1.8389 H   0  0  0  0  0  0  0  0  0  0  0  0
   -6.9638    1.3479    1.0584 H   0  0  0  0  0  0  0  0  0  0  0  0
   -7.2571   -0.1058    0.3711 H   0  0  0  0  0  0  0  0  0  0  0  0
   -8.9118    2.2779   -0.1812 H   0  0  0  0  0  0  0  0  0  0  0  0
   -9.2614    0.5790   -0.6297 H   0  0  0  0  0  0  0  0  0  0  0  0
   -9.0300    1.6781    2.2444 H   0  0  0  0  0  0  0  0  0  0  0  0
  -10.5460    1.3645    1.4072 H   0  0  0  0  0  0  0  0  0  0  0  0
   -8.4705   -0.7522    2.1734 H   0  0  0  0  0  0  0  0  0  0  0  0
   -9.9434   -1.0763    1.2389 H   0  0  0  0  0  0  0  0  0  0  0  0
  -10.0548   -0.4942    2.9079 H   0  0  0  0  0  0  0  0  0  0  0  0
   -5.2846   -0.9513   -1.8743 H   0  0  0  0  0  0  0  0  0  0  0  0
   -3.3864   -2.4979   -2.2309 H   0  0  0  0  0  0  0  0  0  0  0  0
   -1.4778   -4.0057   -2.5750 H   0  0  0  0  0  0  0  0  0  0  0  0
    0.8990   -4.5193   -2.2450 H   0  0  0  0  0  0  0  0  0  0  0  0
    5.0720   -3.6489   -0.5535 H   0  0  0  0  0  0  0  0  0  0  0  0
    6.6967   -2.2737    0.6568 H   0  0  0  0  0  0  0  0  0  0  0  0
    6.8156   -0.3499    2.5403 H   0  0  0  0  0  0  0  0  0  0  0  0
    5.8139    1.0879    2.2297 H   0  0  0  0  0  0  0  0  0  0  0  0
    6.8673    1.2350    0.0540 H   0  0  0  0  0  0  0  0  0  0  0  0
    7.8269   -0.0461    0.4081 H   0  0  0  0  0  0  0  0  0  0  0  0
    8.7183    1.1459    2.3614 H   0  0  0  0  0  0  0  0  0  0  0  0
    7.8025    2.5698    1.7796 H   0  0  0  0  0  0  0  0  0  0  0  0
    9.9524    1.0383    0.1856 H   0  0  0  0  0  0  0  0  0  0  0  0
   10.2382    2.5477    1.0468 H   0  0  0  0  0  0  0  0  0  0  0  0
    8.5640    3.7049   -0.4239 H   0  0  0  0  0  0  0  0  0  0  0  0
    8.3416    2.1989   -1.3356 H   0  0  0  0  0  0  0  0  0  0  0  0
    9.9157    3.0043   -1.3349 H   0  0  0  0  0  0  0  0  0  0  0  0
    3.6361    0.7223    1.2756 H   0  0  0  0  0  0  0  0  0  0  0  0
    1.3345    0.2480    0.4492 H   0  0  0  0  0  0  0  0  0  0  0  0
   -2.2320    2.0890    0.5603 H   0  0  0  0  0  0  0  0  0  0  0  0
  1  2  2  0
  2  3  1  0
  3  4  1  0
  4  5  1  0
  5  6  1  0
  6  7  1  0
  2  8  1  0
  8  9  2  0
  9 10  1  0
 10 11  2  0
 11 12  1  0
 12 13  2  0
 13 14  1  0
 14 15  2  0
 15 16  1  0
 16 17  2  0
 17 18  1  0
 18 19  2  0
 19 20  1  0
 20 21  1  0
 21 22  1  0
 22 23  1  0
 23 24  1  0
 19 25  1  0
 25 26  2  0
 26 27  1  0
 27 28  2  0
 28 29  1  0
 29 30  2  0
 30 31  1  0
 31 32  2  0
 32  1  1  0
 31  9  1  0
 29 11  1  0
 28 14  1  0
 26 16  1  0
  1 33  1  0
  3 34  1  0
  3 35  1  0
  4 36  1  0
  4 37  1  0
  5 38  1  0
  5 39  1  0
  6 40  1  0
  6 41  1  0
  7 42  1  0
  7 43  1  0
  7 44  1  0
  8 45  1  0
 10 46  1  0
 12 47  1  0
 13 48  1  0
 17 49  1  0
 18 50  1  0
 20 51  1  0
 20 52  1  0
 21 53  1  0
 21 54  1  0
 22 55  1  0
 22 56  1  0
 23 57  1  0
 23 58  1  0
 24 59  1  0
 24 60  1  0
 24 61  1  0
 25 62  1  0
 27 63  1  0
 32 64  1  0
M  CHG  2   4   1  21   1
M  END
$$$$
