
     RDKit          3D

 79 84  0  0  0  0  0  0  0  0999 V2000
    7.3846    0.2265   -4.2197 C   0  0  0  0  0  0  0  0  0  0  0  0
    6.1590    0.2099   -3.5742 C   0  0  0  0  0  0  0  0  0  0  0  0
    6.0980    0.2156   -2.1694 C   0  0  0  0  0  0  0  0  0  0  0  0
    4.7334    0.2036   -1.5604 C   0  0  0  0  0  0  0  0  0  0  0  0
    3.7757   -0.1934   -2.2204 O   0  0  0  0  0  0  0  0  0  0  0  0
    4.6176    0.6782   -0.2713 N   0  0  0  0  0  0  0  0  0  0  0  0
    3.3953    0.7070    0.5108 C   0  0  0  0  0  0  0  0  0  0  0  0
    2.0848    0.8873   -0.2814 C   0  0  0  0  0  0  0  0  0  0  0  0
    0.9124    1.3245    0.5053 N   0  0  0  0  0  0  0  0  0  0  0  0
    0.5842    0.4093    1.6100 C   0  0  0  0  0  0  0  0  0  0  0  0
   -0.9284    0.4960    1.8984 C   0  0  0  0  0  0  0  0  0  0  0  0
   -1.6505    0.3269    0.5909 N   0  0  0  0  0  4  0  0  0  0  0  0
   -2.5738    1.4144    0.1690 C   0  0  0  0  0  0  0  0  0  0  0  0
   -3.8824    1.4107    0.9725 C   0  0  0  0  0  0  0  0  0  0  0  0
   -4.7800    0.3020    0.6807 N   0  0  0  0  0  0  0  0  0  0  0  0
   -4.5471   -1.0130    1.0097 C   0  0  0  0  0  0  0  0  0  0  0  0
   -3.4241   -1.3952    1.3362 O   0  0  0  0  0  0  0  0  0  0  0  0
   -5.6800   -1.9843    0.8968 C   0  0  0  0  0  0  0  0  0  0  0  0
   -5.4689   -3.2569    1.4542 C   0  0  0  0  0  0  0  0  0  0  0  0
   -6.4661   -4.2206    1.3882 C   0  0  0  0  0  0  0  0  0  0  0  0
   -7.6645   -3.9147    0.7538 C   0  0  0  0  0  0  0  0  0  0  0  0
   -7.8905   -2.6626    0.1977 C   0  0  0  0  0  0  0  0  0  0  0  0
   -9.0711   -2.4446   -0.3973 N   0  0  0  0  0  0  0  0  0  0  0  0
   -9.3027   -1.2353   -0.9321 C   0  0  0  0  0  0  0  0  0  0  0  0
  -10.5165   -1.0010   -1.5589 C   0  0  0  0  0  0  0  0  0  0  0  0
  -10.8066    0.2310   -2.1385 C   0  0  0  0  0  0  0  0  0  0  0  0
   -9.8638    1.2481   -2.0818 C   0  0  0  0  0  0  0  0  0  0  0  0
   -8.6303    1.0344   -1.4462 C   0  0  0  0  0  0  0  0  0  0  0  0
   -7.6218    2.1491   -1.4079 C   0  0  0  0  0  0  0  0  0  0  0  0
   -8.3356   -0.2102   -0.8734 C   0  0  0  0  0  0  0  0  0  0  0  0
   -7.1423   -0.4343   -0.2746 N   0  0  0  0  0  0  0  0  0  0  0  0
   -6.8968   -1.6607    0.2668 C   0  0  0  0  0  0  0  0  0  0  0  0
    7.2690    0.2193   -1.3915 C   0  0  0  0  0  0  0  0  0  0  0  0
    7.2539    0.2182   -0.0306 N   0  0  0  0  0  0  0  0  0  0  0  0
    8.4293    0.1530    0.6389 C   0  0  0  0  0  0  0  0  0  0  0  0
    8.4636    0.0868    2.0392 C   0  0  0  0  0  0  0  0  0  0  0  0
    7.1969    0.1445    2.8470 C   0  0  0  0  0  0  0  0  0  0  0  0
    9.6920    0.0162    2.7196 C   0  0  0  0  0  0  0  0  0  0  0  0
   10.8837   -0.0005    2.0103 C   0  0  0  0  0  0  0  0  0  0  0  0
   10.8496    0.0635    0.6178 C   0  0  0  0  0  0  0  0  0  0  0  0
    9.6479    0.1364   -0.0732 C   0  0  0  0  0  0  0  0  0  0  0  0
    9.6770    0.1808   -1.4141 N   0  0  0  0  0  0  0  0  0  0  0  0
    8.5078    0.2085   -2.0692 C   0  0  0  0  0  0  0  0  0  0  0  0
    8.5478    0.2224   -3.4568 C   0  0  0  0  0  0  0  0  0  0  0  0
    7.4358    0.2303   -5.3059 H   0  0  0  0  0  0  0  0  0  0  0  0
    5.2447    0.1954   -4.1653 H   0  0  0  0  0  0  0  0  0  0  0  0
    5.4985    0.8446    0.2191 H   0  0  0  0  0  0  0  0  0  0  0  0
    3.3664   -0.2196    1.0936 H   0  0  0  0  0  0  0  0  0  0  0  0
    3.5143    1.5329    1.2209 H   0  0  0  0  0  0  0  0  0  0  0  0
    2.2342    1.6329   -1.0697 H   0  0  0  0  0  0  0  0  0  0  0  0
    1.8234   -0.0490   -0.7829 H   0  0  0  0  0  0  0  0  0  0  0  0
    1.1328    2.2497    0.8915 H   0  0  0  0  0  0  0  0  0  0  0  0
    0.8136   -0.6270    1.3328 H   0  0  0  0  0  0  0  0  0  0  0  0
    1.1608    0.6493    2.5109 H   0  0  0  0  0  0  0  0  0  0  0  0
   -1.2020    1.4665    2.3313 H   0  0  0  0  0  0  0  0  0  0  0  0
   -1.2557   -0.3104    2.5655 H   0  0  0  0  0  0  0  0  0  0  0  0
   -2.1736   -0.5721    0.6305 H   0  0  0  0  0  0  0  0  0  0  0  0
   -0.9255    0.2325   -0.1377 H   0  0  0  0  0  0  0  0  0  0  0  0
   -2.0393    2.3657    0.2859 H   0  0  0  0  0  0  0  0  0  0  0  0
   -2.7770    1.2469   -0.8968 H   0  0  0  0  0  0  0  0  0  0  0  0
   -4.4417    2.3248    0.7431 H   0  0  0  0  0  0  0  0  0  0  0  0
   -3.6796    1.4029    2.0516 H   0  0  0  0  0  0  0  0  0  0  0  0
   -5.7190    0.5214    0.3305 H   0  0  0  0  0  0  0  0  0  0  0  0
   -4.5327   -3.5000    1.9532 H   0  0  0  0  0  0  0  0  0  0  0  0
   -6.3163   -5.2057    1.8255 H   0  0  0  0  0  0  0  0  0  0  0  0
   -8.4465   -4.6724    0.6919 H   0  0  0  0  0  0  0  0  0  0  0  0
  -11.2542   -1.8007   -1.6039 H   0  0  0  0  0  0  0  0  0  0  0  0
  -11.7636    0.3920   -2.6288 H   0  0  0  0  0  0  0  0  0  0  0  0
  -10.0963    2.2106   -2.5370 H   0  0  0  0  0  0  0  0  0  0  0  0
   -6.7504    1.8881   -2.0171 H   0  0  0  0  0  0  0  0  0  0  0  0
   -7.3018    2.3379   -0.3776 H   0  0  0  0  0  0  0  0  0  0  0  0
   -8.0436    3.0829   -1.7980 H   0  0  0  0  0  0  0  0  0  0  0  0
    7.3191   -0.3828    3.7997 H   0  0  0  0  0  0  0  0  0  0  0  0
    6.9417    1.1887    3.0514 H   0  0  0  0  0  0  0  0  0  0  0  0
    6.3582   -0.3264    2.3279 H   0  0  0  0  0  0  0  0  0  0  0  0
    9.7218   -0.0337    3.8061 H   0  0  0  0  0  0  0  0  0  0  0  0
   11.8366   -0.0601    2.5292 H   0  0  0  0  0  0  0  0  0  0  0  0
   11.7819    0.0440    0.0574 H   0  0  0  0  0  0  0  0  0  0  0  0
    9.5158    0.2235   -3.9566 H   0  0  0  0  0  0  0  0  0  0  0  0
  1  2  2  0
  2  3  1  0
  3  4  1  0
  4  5  2  0
  4  6  1  0
  6  7  1  0
  7  8  1  0
  8  9  1  0
  9 10  1  0
 10 11  1  0
 11 12  1  0
 12 13  1  0
 13 14  1  0
 14 15  1  0
 15 16  1  0
 16 17  2  0
 16 18  1  0
 18 19  2  0
 19 20  1  0
 20 21  2  0
 21 22  1  0
 22 23  2  0
 23 24  1  0
 24 25  2  0
 25 26  1  0
 26 27  2  0
 27 28  1  0
 28 29  1  0
 28 30  2  0
 30 31  1  0
 31 32  2  0
  3 33  2  0
 33 34  1  0
 34 35  2  0
 35 36  1  0
 36 37  1  0
 36 38  2  0
 38 39  1  0
 39 40  2  0
 40 41  1  0
 41 42  2  0
 42 43  1  0
 43 44  2  0
 44  1  1  0
 32 18  1  0
 43 33  1  0
 32 22  1  0
 41 35  1  0
 30 24  1  0
  1 45  1  0
  2 46  1  0
  6 47  1  0
  7 48  1  0
  7 49  1  0
  8 50  1  0
  8 51  1  0
  9 52  1  0
 10 53  1  0
 10 54  1  0
 11 55  1  0
 11 56  1  0
 12 57  1  0
 12 58  1  0
 13 59  1  0
 13 60  1  0
 14 61  1  0
 14 62  1  0
 15 63  1  0
 19 64  1  0
 20 65  1  0
 21 66  1  0
 25 67  1  0
 26 68  1  0
 27 69  1  0
 29 70  1  0
 29 71  1  0
 29 72  1  0
 37 73  1  0
 37 74  1  0
 37 75  1  0
 38 76  1  0
 39 77  1  0
 40 78  1  0
 44 79  1  0
M  CHG  1  12   1
M  END
$$$$
